 50

  Ni   0.000000   0.000000   0.000000
  Ni   0.000000   2.491844   0.000000
  Ni   0.000000  -2.491844   0.000000
  Ni  -2.158000   1.245922   0.000000
  Ni  -2.158000  -1.245922   0.000000
  Ni   2.158000   1.245922   0.000000
  Ni   2.158000  -1.245922   0.000000
  Ni   0.719333   1.245922  -2.034582
  Ni   0.719333  -1.245922  -2.034582
  Ni  -1.438667   0.000000  -2.034582
  Ni  -1.438667   2.491844  -2.034582
  Ni  -1.438667  -2.491844  -2.034582
  Ni   2.877334   0.000000  -2.034582
  Ni  -4.316001   0.000000   0.000000
  Ni  -2.158000   3.737766   0.000000
  Ni   2.158000   3.737766   0.000000
  Ni  -2.158000  -3.737766   0.000000
  Ni   4.316001   0.000000   0.000000
  Ni   2.158000  -3.737766   0.000000
  Ni  -3.596667   1.245922  -2.034582
  Ni  -3.596667  -1.245922  -2.034582
  Ni   0.719333   3.737766  -2.034582
  Ni   2.877334   2.491844  -2.034582
  Ni   0.719333  -3.737766  -2.034582
  Ni   2.877334  -2.491844  -2.034582
  Ni  -0.719333   1.245922  -4.069165
  Ni  -0.719333  -1.245922  -4.069165
  Ni   1.438667   0.000000  -4.069165
  Ni   0.000000   4.983689   0.000000
  Ni   0.000000  -4.983689   0.000000
  Ni  -4.316001   2.491844   0.000000
  Ni  -4.316001  -2.491844   0.000000
  Ni   4.316001   2.491844   0.000000
  Ni   4.316001  -2.491844   0.000000
  Ni   1.438667   2.491844  -4.069165
  Ni   1.438667  -2.491844  -4.069165
  Ni  -2.877334   0.000000  -4.069165
  Ni   3.596667   1.245922  -4.069165
  Ni   3.596667  -1.245922  -4.069165
  Ni  -2.877334   2.491844  -4.069165
  Ni  -0.719333   3.737766  -4.069165
  Ni  -2.877334  -2.491844  -4.069165
  Ni  -0.719333  -3.737766  -4.069165
  Ni   0.000000   0.000000  -6.103747
  Ni  -2.158000   1.245922  -6.103747
  Ni  -2.158000  -1.245922  -6.103747
  Ni   0.000000   2.491844  -6.103747
  Ni   0.000000  -2.491844  -6.103747
  Ni   2.158000   1.245922  -6.103747
  Ni   2.158000  -1.245922  -6.103747
